$ pyNastran : punch=True
$ Nanuqx Flying Wing - Largest Connected Component
$
$ GRID POINTS
GRID,1,,4.841849e-01,-6.096000e-01,6.015477e-02
GRID,2,,4.961055e-01,-6.096000e-01,3.982049e-02
GRID,3,,5.058943e-01,-6.096000e-01,5.469174e-02
GRID,4,,5.004539e-01,-6.096000e-01,7.809787e-02
GRID,5,,4.841849e-01,6.096000e-01,6.015477e-02
GRID,6,,5.004539e-01,6.096000e-01,7.809787e-02
GRID,7,,5.160390e-01,6.096000e-01,5.842699e-02
GRID,8,,4.961055e-01,6.096000e-01,3.982049e-02
GRID,9,,5.193744e-01,-6.096000e-01,3.168699e-02
GRID,10,,5.193744e-01,6.096000e-01,3.168699e-02
GRID,11,,5.238010e-01,-6.096000e-01,6.233665e-02
GRID,12,,5.230905e-01,-6.096000e-01,8.816759e-02
GRID,13,,5.230905e-01,6.096000e-01,8.816759e-02
GRID,14,,5.428938e-01,6.096000e-01,6.994514e-02
GRID,15,,5.433862e-01,6.096000e-01,4.494994e-02
GRID,16,,5.392419e-01,-6.096000e-01,4.772807e-02
GRID,17,,5.435292e-01,-6.096000e-01,2.669804e-02
GRID,18,,5.435292e-01,6.096000e-01,2.669804e-02
GRID,19,,5.442663e-01,-6.096000e-01,7.052392e-02
GRID,20,,5.464438e-01,-6.096000e-01,9.571679e-02
$ ... 2663 like lines cut
$
$ MATERIAL (Aluminum 7075-T6)
MAT1,1,7.1700e+10,,0.33,2810.0
$
$ SHELL PROPERTY
PSHELL,1,1,0.0020,1,,1
$
$ ELEMENTS
CTRIA3,1,1,1,2,3
CTRIA3,2,1,1,3,4
CTRIA3,3,1,5,6,7
CTRIA3,4,1,5,7,8
CTRIA3,5,1,2,9,3
CTRIA3,6,1,8,7,10
CTRIA3,7,1,4,3,11
CTRIA3,8,1,4,11,12
CTRIA3,9,1,6,13,7
CTRIA3,10,1,3,9,11
CTRIA3,11,1,7,13,14
CTRIA3,12,1,7,14,15
CTRIA3,13,1,7,15,10
CTRIA3,14,1,9,16,11
CTRIA3,15,1,9,17,16
CTRIA3,16,1,10,15,18
CTRIA3,17,1,12,11,19
CTRIA3,18,1,12,19,20
CTRIA3,19,1,13,21,14
CTRIA3,20,1,11,16,19
$ ... 4534 like lines cut
$
$ MINIMAL CONSTRAINTS
SPC1,1,123456,1404
SPC1,1,23,2682
SPC1,1,3,1
