$ pyNastran : punch=True
$ Nanuqx Flying Wing - Converted from STL
$ Generated by convert_stl_to_bdf.py
$
$ GRID POINTS
GRID,1,,3.556000e-02,-2.392699e-01,4.169821e-02
GRID,2,,3.556000e-02,-2.225420e-01,2.130321e-02
GRID,3,,3.556000e-02,-2.100295e-01,4.722620e-02
GRID,4,,3.556000e-02,-2.370649e-01,6.562012e-02
GRID,5,,3.556000e-02,-2.001000e-01,7.214656e-02
GRID,6,,3.556000e-02,-2.206008e-01,8.573627e-02
GRID,7,,3.556000e-02,-1.997545e-01,1.041245e-02
GRID,8,,3.556000e-02,-1.887611e-01,2.791062e-02
GRID,9,,3.556000e-02,-1.996824e-01,9.920354e-02
GRID,10,,3.556000e-02,-1.730439e-01,5.350481e-02
GRID,11,,3.556000e-02,-1.907868e-01,1.036162e-01
GRID,12,,3.556000e-02,-1.654464e-01,8.259943e-02
GRID,13,,3.556000e-02,-1.755676e-01,3.054112e-03
GRID,14,,3.556000e-02,-1.676122e-01,1.137148e-01
GRID,15,,3.556000e-02,-1.534800e-01,2.830333e-02
GRID,16,,3.556000e-02,-1.510056e-01,-2.898318e-03
GRID,17,,3.556000e-02,-1.290954e-01,5.862066e-02
GRID,18,,3.556000e-02,-1.308145e-01,9.621200e-02
GRID,19,,3.556000e-02,-1.438218e-01,1.222243e-01
GRID,20,,3.556000e-02,-1.171307e-01,2.108935e-02
$ ... 7238 like lines cut
$
$ MATERIAL (Aluminum 7075-T6)
MAT1,1,7.1700e+10,,0.33,2810.0
$
$ SHELL PROPERTY
PSHELL,1,1,0.0020,1,,1
$
$ ELEMENTS
CTRIA3,1,1,1,2,3
CTRIA3,2,1,1,3,4
CTRIA3,3,1,4,3,5
CTRIA3,4,1,4,5,6
CTRIA3,5,1,2,7,8
CTRIA3,6,1,2,8,3
CTRIA3,7,1,6,5,9
CTRIA3,8,1,3,8,10
CTRIA3,9,1,3,10,5
CTRIA3,10,1,5,11,9
CTRIA3,11,1,5,10,12
CTRIA3,12,1,5,12,11
CTRIA3,13,1,7,13,8
CTRIA3,14,1,11,12,14
CTRIA3,15,1,8,13,15
CTRIA3,16,1,8,15,10
CTRIA3,17,1,13,16,15
CTRIA3,18,1,10,15,17
CTRIA3,19,1,10,17,12
CTRIA3,20,1,14,12,18
$ ... 11272 like lines cut
$
$ MINIMAL CONSTRAINTS (for solver stability with inertial relief)
SPC1,1,123456,3298
SPC1,1,23,1
SPC1,1,3,5073
