$ pyNastran : punch=True
$ Simple Aircraft Model for Inertial Relief Demo
$ Units: SI (meters, Newtons, kg)
GRID,1,,0.0,0.0,0.0
GRID,2,,1.0,0.0,0.0
GRID,3,,2.0,0.0,0.0
GRID,4,,3.0,0.0,0.0
GRID,5,,4.0,0.0,0.0
GRID,6,,5.0,0.0,0.0
GRID,7,,6.0,0.0,0.0
GRID,8,,7.0,0.0,0.0
GRID,9,,8.0,0.0,0.0
GRID,10,,9.0,0.0,0.0
GRID,11,,10.0,0.0,0.0
GRID,12,,11.0,0.0,0.0
GRID,13,,12.0,0.0,0.0
GRID,14,,13.0,0.0,0.0
GRID,15,,14.0,0.0,0.0
GRID,16,,15.0,0.0,0.0
GRID,17,,16.0,0.0,0.0
GRID,18,,17.0,0.0,0.0
GRID,19,,18.0,0.0,0.0
GRID,20,,19.0,0.0,0.0
$ ... 67 like lines cut
$
$ Material Properties
$
MAT1,1,7.000e+10,,0.3,2700.0
$
$ Shell Property for Wings
$
PSHELL,1,1,0.01,1,,1
PSHELL,2,1,0.005,1,,1
$
$ Left Wing Elements
$
CQUAD4,1,1,22,23,26,25
CQUAD4,2,1,23,24,27,26
CQUAD4,3,1,25,26,29,28
CQUAD4,4,1,26,27,30,29
CQUAD4,5,1,28,29,32,31
CQUAD4,6,1,29,30,33,32
CQUAD4,7,1,31,32,35,34
CQUAD4,8,1,32,33,36,35
CQUAD4,9,1,34,35,38,37
CQUAD4,10,1,35,36,39,38
CQUAD4,11,1,37,38,41,40
CQUAD4,12,1,38,39,42,41
CQUAD4,13,1,40,41,44,43
CQUAD4,14,1,41,42,45,44
CQUAD4,15,1,43,44,47,46
CQUAD4,16,1,44,45,48,47
CQUAD4,17,1,46,47,50,49
CQUAD4,18,1,47,48,51,50
CQUAD4,19,1,49,50,53,52
CQUAD4,20,1,50,51,54,53
$
$ Right Wing Elements
$
CQUAD4,21,1,55,56,59,58
CQUAD4,22,1,56,57,60,59
CQUAD4,23,1,58,59,62,61
CQUAD4,24,1,59,60,63,62
CQUAD4,25,1,61,62,65,64
CQUAD4,26,1,62,63,66,65
CQUAD4,27,1,64,65,68,67
CQUAD4,28,1,65,66,69,68
CQUAD4,29,1,67,68,71,70
CQUAD4,30,1,68,69,72,71
CQUAD4,31,1,70,71,74,73
CQUAD4,32,1,71,72,75,74
CQUAD4,33,1,73,74,77,76
CQUAD4,34,1,74,75,78,77
CQUAD4,35,1,76,77,80,79
CQUAD4,36,1,77,78,81,80
CQUAD4,37,1,79,80,83,82
CQUAD4,38,1,80,81,84,83
CQUAD4,39,1,82,83,86,85
CQUAD4,40,1,83,84,87,86
$
$ Fuselage Elements (simplified)
$
GRID,88,,0.0,0.0,0.75
GRID,89,,0.0,0.0,-0.75
GRID,90,,1.0,0.0,0.75
GRID,91,,1.0,0.0,-0.75
GRID,92,,2.0,0.0,0.75
GRID,93,,2.0,0.0,-0.75
GRID,94,,3.0,0.0,0.75
GRID,95,,3.0,0.0,-0.75
GRID,96,,4.0,0.0,0.75
GRID,97,,4.0,0.0,-0.75
GRID,98,,5.0,0.0,0.75
GRID,99,,5.0,0.0,-0.75
GRID,100,,6.0,0.0,0.75
GRID,101,,6.0,0.0,-0.75
GRID,102,,7.0,0.0,0.75
GRID,103,,7.0,0.0,-0.75
GRID,104,,8.0,0.0,0.75
GRID,105,,8.0,0.0,-0.75
GRID,106,,9.0,0.0,0.75
GRID,107,,9.0,0.0,-0.75
$ ... 22 like lines cut
CQUAD4,41,2,88,90,2,1
CQUAD4,42,2,1,2,91,89
CQUAD4,43,2,90,92,3,2
CQUAD4,44,2,2,3,93,91
CQUAD4,45,2,92,94,4,3
CQUAD4,46,2,3,4,95,93
CQUAD4,47,2,94,96,5,4
CQUAD4,48,2,4,5,97,95
CQUAD4,49,2,96,98,6,5
CQUAD4,50,2,5,6,99,97
CQUAD4,51,2,98,100,7,6
CQUAD4,52,2,6,7,101,99
CQUAD4,53,2,100,102,8,7
CQUAD4,54,2,7,8,103,101
CQUAD4,55,2,102,104,9,8
CQUAD4,56,2,8,9,105,103
CQUAD4,57,2,104,106,10,9
CQUAD4,58,2,9,10,107,105
CQUAD4,59,2,106,108,11,10
CQUAD4,60,2,10,11,109,107
$ ... 20 like lines cut
$
$ Wing-Fuselage Connections
$
RBE2,81,9,123456,22,23,24
RBE2,82,9,123456,55,56,57
$
$ Minimal Constraints for Solver Stability
$
SPC1,1,123456,1
SPC1,1,2,21
